<?xml version="1.0" ?>
<connections>
  <connection from="in_J001_north" to="out_J001_south" fromLane="0" toLane="0" shape=""/>
  <connection from="in_J001_north" to="out_J001_south" fromLane="1" toLane="1" shape=""/>
  <connection from="in_J001_north" to="out_J001_west" fromLane="0" toLane="0" radius="12.00"/>
  <connection from="in_J001_north" to="out_J001_west" fromLane="1" toLane="1" radius="12.00"/>
  <connection from="in_J001_north" to="out_J001_east" fromLane="0" toLane="0" radius="12.00"/>
  <connection from="in_J001_north" to="out_J001_east" fromLane="1" toLane="1" radius="12.00"/>
  <connection from="in_J001_south" to="out_J001_north" fromLane="0" toLane="0" shape=""/>
  <connection from="in_J001_south" to="out_J001_north" fromLane="1" toLane="1" shape=""/>
  <connection from="in_J001_south" to="out_J001_east" fromLane="0" toLane="0" radius="12.00"/>
  <connection from="in_J001_south" to="out_J001_east" fromLane="1" toLane="1" radius="12.00"/>
  <connection from="in_J001_south" to="out_J001_west" fromLane="0" toLane="0" radius="12.00"/>
  <connection from="in_J001_south" to="out_J001_west" fromLane="1" toLane="1" radius="12.00"/>
  <connection from="in_J001_east" to="out_J001_west" fromLane="0" toLane="0" radius="8.00"/>
  <connection from="in_J001_east" to="out_J001_west" fromLane="1" toLane="1" radius="8.00"/>
  <connection from="in_J001_east" to="out_J001_west" fromLane="2" toLane="2" radius="8.00"/>
  <connection from="in_J001_east" to="out_J001_north" fromLane="0" toLane="0" radius="8.00"/>
  <connection from="in_J001_east" to="out_J001_north" fromLane="1" toLane="1" radius="8.00"/>
  <connection from="in_J001_east" to="out_J001_north" fromLane="2" toLane="1" radius="8.00"/>
  <connection from="in_J001_east" to="out_J001_south" fromLane="0" toLane="0" radius="8.00"/>
  <connection from="in_J001_east" to="out_J001_south" fromLane="1" toLane="1" radius="8.00"/>
  <connection from="in_J001_east" to="out_J001_south" fromLane="2" toLane="1" radius="8.00"/>
  <connection from="in_J001_west" to="out_J001_east" fromLane="0" toLane="0" radius="8.00"/>
  <connection from="in_J001_west" to="out_J001_east" fromLane="1" toLane="1" radius="8.00"/>
  <connection from="in_J001_west" to="out_J001_east" fromLane="2" toLane="2" radius="8.00"/>
  <connection from="in_J001_west" to="out_J001_south" fromLane="0" toLane="0" radius="8.00"/>
  <connection from="in_J001_west" to="out_J001_south" fromLane="1" toLane="1" radius="8.00"/>
  <connection from="in_J001_west" to="out_J001_south" fromLane="2" toLane="1" radius="8.00"/>
  <connection from="in_J001_west" to="out_J001_north" fromLane="0" toLane="0" radius="8.00"/>
  <connection from="in_J001_west" to="out_J001_north" fromLane="1" toLane="1" radius="8.00"/>
  <connection from="in_J001_west" to="out_J001_north" fromLane="2" toLane="1" radius="8.00"/>
  <connection from="in_J002_north" to="out_J002_south" fromLane="0" toLane="0" shape=""/>
  <connection from="in_J002_north" to="out_J002_west" fromLane="0" toLane="0" radius="6.00"/>
  <connection from="in_J002_north" to="out_J002_east" fromLane="0" toLane="0" radius="6.00"/>
  <connection from="in_J002_south" to="out_J002_north" fromLane="0" toLane="0" shape=""/>
  <connection from="in_J002_south" to="out_J002_east" fromLane="0" toLane="0" radius="5.00"/>
  <connection from="in_J002_south" to="out_J002_west" fromLane="0" toLane="0" radius="5.00"/>
  <connection from="in_J002_east" to="out_J002_west" fromLane="0" toLane="0" radius="6.00"/>
  <connection from="in_J002_east" to="out_J002_west" fromLane="1" toLane="1" radius="6.00"/>
  <connection from="in_J002_east" to="out_J002_north" fromLane="0" toLane="0" radius="6.00"/>
  <connection from="in_J002_east" to="out_J002_north" fromLane="1" toLane="0" radius="6.00"/>
  <connection from="in_J002_east" to="out_J002_south" fromLane="0" toLane="0" radius="6.00"/>
  <connection from="in_J002_east" to="out_J002_south" fromLane="1" toLane="0" radius="6.00"/>
  <connection from="in_J002_west" to="out_J002_east" fromLane="0" toLane="0" radius="6.00"/>
  <connection from="in_J002_west" to="out_J002_east" fromLane="1" toLane="1" radius="6.00"/>
  <connection from="in_J002_west" to="out_J002_south" fromLane="0" toLane="0" radius="6.00"/>
  <connection from="in_J002_west" to="out_J002_south" fromLane="1" toLane="0" radius="6.00"/>
  <connection from="in_J002_west" to="out_J002_north" fromLane="0" toLane="0" radius="6.00"/>
  <connection from="in_J002_west" to="out_J002_north" fromLane="1" toLane="0" radius="6.00"/>
  <connection from="in_J003_north" to="out_J003_south" fromLane="0" toLane="0" shape=""/>
  <connection from="in_J003_north" to="out_J003_south" fromLane="1" toLane="1" shape=""/>
  <connection from="in_J003_north" to="out_J003_south" fromLane="2" toLane="2" shape=""/>
  <connection from="in_J003_north" to="out_J003_west" fromLane="0" toLane="0" radius="15.00"/>
  <connection from="in_J003_north" to="out_J003_west" fromLane="1" toLane="1" radius="15.00"/>
  <connection from="in_J003_north" to="out_J003_west" fromLane="2" toLane="1" radius="15.00"/>
  <connection from="in_J003_north" to="out_J003_east" fromLane="0" toLane="0" radius="15.00"/>
  <connection from="in_J003_north" to="out_J003_east" fromLane="1" toLane="1" radius="15.00"/>
  <connection from="in_J003_north" to="out_J003_east" fromLane="2" toLane="1" radius="15.00"/>
  <connection from="in_J003_south" to="out_J003_north" fromLane="0" toLane="0" shape=""/>
  <connection from="in_J003_south" to="out_J003_north" fromLane="1" toLane="1" shape=""/>
  <connection from="in_J003_south" to="out_J003_north" fromLane="2" toLane="2" shape=""/>
  <connection from="in_J003_south" to="out_J003_east" fromLane="0" toLane="0" radius="15.00"/>
  <connection from="in_J003_south" to="out_J003_east" fromLane="1" toLane="1" radius="15.00"/>
  <connection from="in_J003_south" to="out_J003_east" fromLane="2" toLane="1" radius="15.00"/>
  <connection from="in_J003_south" to="out_J003_west" fromLane="0" toLane="0" radius="15.00"/>
  <connection from="in_J003_south" to="out_J003_west" fromLane="1" toLane="1" radius="15.00"/>
  <connection from="in_J003_south" to="out_J003_west" fromLane="2" toLane="1" radius="15.00"/>
  <connection from="in_J003_east" to="out_J003_west" fromLane="0" toLane="0" radius="10.00"/>
  <connection from="in_J003_east" to="out_J003_west" fromLane="1" toLane="1" radius="10.00"/>
  <connection from="in_J003_east" to="out_J003_north" fromLane="0" toLane="0" radius="10.00"/>
  <connection from="in_J003_east" to="out_J003_north" fromLane="1" toLane="1" radius="10.00"/>
  <connection from="in_J003_east" to="out_J003_south" fromLane="0" toLane="0" radius="10.00"/>
  <connection from="in_J003_east" to="out_J003_south" fromLane="1" toLane="1" radius="10.00"/>
  <connection from="in_J003_west" to="out_J003_east" fromLane="0" toLane="0" radius="10.00"/>
  <connection from="in_J003_west" to="out_J003_east" fromLane="1" toLane="1" radius="10.00"/>
  <connection from="in_J003_west" to="out_J003_south" fromLane="0" toLane="0" radius="10.00"/>
  <connection from="in_J003_west" to="out_J003_south" fromLane="1" toLane="1" radius="10.00"/>
  <connection from="in_J003_west" to="out_J003_north" fromLane="0" toLane="0" radius="10.00"/>
  <connection from="in_J003_west" to="out_J003_north" fromLane="1" toLane="1" radius="10.00"/>
  <connection from="in_J004_north" to="out_J004_south" fromLane="0" toLane="0" shape=""/>
  <connection from="in_J004_north" to="out_J004_south" fromLane="1" toLane="1" shape=""/>
  <connection from="in_J004_north" to="out_J004_west" fromLane="0" toLane="0" radius="10.00"/>
  <connection from="in_J004_north" to="out_J004_west" fromLane="1" toLane="1" radius="10.00"/>
  <connection from="in_J004_north" to="out_J004_east" fromLane="0" toLane="0" radius="10.00"/>
  <connection from="in_J004_north" to="out_J004_east" fromLane="1" toLane="1" radius="10.00"/>
  <connection from="in_J004_south" to="out_J004_north" fromLane="0" toLane="0" shape=""/>
  <connection from="in_J004_south" to="out_J004_north" fromLane="1" toLane="1" shape=""/>
  <connection from="in_J004_south" to="out_J004_east" fromLane="0" toLane="0" radius="10.00"/>
  <connection from="in_J004_south" to="out_J004_east" fromLane="1" toLane="1" radius="10.00"/>
  <connection from="in_J004_south" to="out_J004_west" fromLane="0" toLane="0" radius="10.00"/>
  <connection from="in_J004_south" to="out_J004_west" fromLane="1" toLane="1" radius="10.00"/>
  <connection from="in_J004_east" to="out_J004_west" fromLane="0" toLane="0" radius="8.00"/>
  <connection from="in_J004_east" to="out_J004_west" fromLane="1" toLane="1" radius="8.00"/>
  <connection from="in_J004_east" to="out_J004_north" fromLane="0" toLane="0" radius="8.00"/>
  <connection from="in_J004_east" to="out_J004_north" fromLane="1" toLane="1" radius="8.00"/>
  <connection from="in_J004_east" to="out_J004_south" fromLane="0" toLane="0" radius="8.00"/>
  <connection from="in_J004_east" to="out_J004_south" fromLane="1" toLane="1" radius="8.00"/>
  <connection from="in_J004_west" to="out_J004_east" fromLane="0" toLane="0" radius="8.00"/>
  <connection from="in_J004_west" to="out_J004_east" fromLane="1" toLane="1" radius="8.00"/>
  <connection from="in_J004_west" to="out_J004_south" fromLane="0" toLane="0" radius="8.00"/>
  <connection from="in_J004_west" to="out_J004_south" fromLane="1" toLane="1" radius="8.00"/>
  <connection from="in_J004_west" to="out_J004_north" fromLane="0" toLane="0" radius="8.00"/>
  <connection from="in_J004_west" to="out_J004_north" fromLane="1" toLane="1" radius="8.00"/>
  <connection from="in_J005_north" to="out_J005_south" fromLane="0" toLane="0" shape=""/>
  <connection from="in_J005_north" to="out_J005_south" fromLane="1" toLane="1" shape=""/>
  <connection from="in_J005_north" to="out_J005_west" fromLane="0" toLane="0" radius="18.00"/>
  <connection from="in_J005_north" to="out_J005_west" fromLane="1" toLane="1" radius="18.00"/>
  <connection from="in_J005_north" to="out_J005_east" fromLane="0" toLane="0" radius="18.00"/>
  <connection from="in_J005_north" to="out_J005_east" fromLane="1" toLane="1" radius="18.00"/>
  <connection from="in_J005_south" to="out_J005_north" fromLane="0" toLane="0" shape=""/>
  <connection from="in_J005_south" to="out_J005_north" fromLane="1" toLane="1" shape=""/>
  <connection from="in_J005_south" to="out_J005_east" fromLane="0" toLane="0" radius="18.00"/>
  <connection from="in_J005_south" to="out_J005_east" fromLane="1" toLane="1" radius="18.00"/>
  <connection from="in_J005_south" to="out_J005_west" fromLane="0" toLane="0" radius="18.00"/>
  <connection from="in_J005_south" to="out_J005_west" fromLane="1" toLane="1" radius="18.00"/>
  <connection from="in_J005_east" to="out_J005_west" fromLane="0" toLane="0" radius="15.00"/>
  <connection from="in_J005_east" to="out_J005_west" fromLane="1" toLane="1" radius="15.00"/>
  <connection from="in_J005_east" to="out_J005_north" fromLane="0" toLane="0" radius="15.00"/>
  <connection from="in_J005_east" to="out_J005_north" fromLane="1" toLane="1" radius="15.00"/>
  <connection from="in_J005_east" to="out_J005_south" fromLane="0" toLane="0" radius="15.00"/>
  <connection from="in_J005_east" to="out_J005_south" fromLane="1" toLane="1" radius="15.00"/>
  <connection from="in_J005_west" to="out_J005_east" fromLane="0" toLane="0" radius="15.00"/>
  <connection from="in_J005_west" to="out_J005_east" fromLane="1" toLane="1" radius="15.00"/>
  <connection from="in_J005_west" to="out_J005_south" fromLane="0" toLane="0" radius="15.00"/>
  <connection from="in_J005_west" to="out_J005_south" fromLane="1" toLane="1" radius="15.00"/>
  <connection from="in_J005_west" to="out_J005_north" fromLane="0" toLane="0" radius="15.00"/>
  <connection from="in_J005_west" to="out_J005_north" fromLane="1" toLane="1" radius="15.00"/>
</connections>